/*--------------------------------*- C++ -*----------------------------------*\
| =========                 |                                                 |
| \\      /  F ield         | OpenFOAM: The Open Source CFD Toolbox           |
|  \\    /   O peration     | Version:  v1806                                 |
|   \\  /    A nd           | Web:      www.OpenFOAM.com                      |
|    \\/     M anipulation  |                                                 |
\*---------------------------------------------------------------------------*/
FoamFile
{
    version     2.0;
    format      ascii;
    class       dictionary;
    location    "system";
    object      fvSolution;
}
// * * * * * * * * * * * * * * * * * * * * * * * * * * * * * * * * * * * * * //

solvers
{
    "(rho|p)"
    {
        solver          PCG;
        preconditioner  DIC;
        tolerance       1e-8;
        relTol          0.01;
    }

   "(p|rho)Final"
    {
        $p;
        relTol          0;
    }

    "(U|e|h|k|omega)"
    {
        solver          smoothSolver;
        smoother        symGaussSeidel;
        tolerance       1e-15;
        relTol          0.01;
    }


   "(U|e|h|k|omega)Final"
    {
        $U;
        relTol          0;
    }
}

PIMPLE
{
    momentumPredictor yes;
    nOuterCorrectors 3;
    nCorrectors      1;
    nNonOrthogonalCorrectors  0;

//    nonOrthogonalityThreshold   60;
//    skewnessThreshold           0.5;
//    updateEnergyInPISO          false;

    pMinFactor      0.5;
    pMaxFactor      2.0;
}

relaxationFactors
{
    equations
    {
        ".*"  1;
    }
}

// ************************************************************************* //
